358
 generated by VMD
C 0.000000000000 0.443116000000 0.000000000000
H 0.000000000000 1.074160000000 0.892431000000
H 0.000000000000 1.074160000000 -0.892431000000
C 2.506644000000 0.443116000000 0.000000000000
H 2.506644000000 1.074160000000 0.892431000000
H 2.506644000000 1.074160000000 -0.892431000000
C 5.013289000000 0.443116000000 0.000000000000
H 5.013289000000 1.074160000000 0.892431000000
H 5.013289000000 1.074160000000 -0.892431000000
C 7.519934000000 0.443116000000 0.000000000000
H 7.519934000000 1.074160000000 0.892431000000
H 7.519934000000 1.074160000000 -0.892431000000
C 10.026578000000 0.443116000000 0.000000000000
H 10.026578000000 1.074160000000 0.892431000000
H 10.026578000000 1.074160000000 -0.892431000000
C 12.533223000000 0.443116000000 0.000000000000
H 12.533223000000 1.074160000000 0.892431000000
H 12.533223000000 1.074160000000 -0.892431000000
C 15.039867000000 0.443116000000 0.000000000000
H 15.039867000000 1.074160000000 0.892431000000
H 15.039867000000 1.074160000000 -0.892431000000
C 17.546513000000 0.443116000000 0.000000000000
H 17.546513000000 1.074160000000 0.892431000000
H 17.546513000000 1.074160000000 -0.892431000000
C 20.053156000000 0.443116000000 0.000000000000
H 20.053156000000 1.074160000000 0.892431000000
H 20.053156000000 1.074160000000 -0.892431000000
C 22.559801000000 0.443116000000 0.000000000000
H 22.559801000000 1.074160000000 0.892431000000
H 22.559801000000 1.074160000000 -0.892431000000
C 25.066446000000 0.443116000000 0.000000000000
H 25.066446000000 1.074160000000 0.892431000000
H 25.066446000000 1.074160000000 -0.892431000000
C 27.573092000000 0.443116000000 0.000000000000
H 27.573092000000 1.074160000000 0.892431000000
H 27.573092000000 1.074160000000 -0.892431000000
C 30.079735000000 0.443116000000 0.000000000000
H 30.079735000000 1.074160000000 0.892431000000
H 30.079735000000 1.074160000000 -0.892431000000
C 32.586380000000 0.443116000000 0.000000000000
H 32.586380000000 1.074160000000 0.892431000000
H 32.586380000000 1.074160000000 -0.892431000000
C 35.093025000000 0.443116000000 0.000000000000
H 35.093025000000 1.074160000000 0.892431000000
H 35.093025000000 1.074160000000 -0.892431000000
C 37.599670000000 0.443116000000 0.000000000000
H 37.599670000000 1.074160000000 0.892431000000
H 37.599670000000 1.074160000000 -0.892431000000
C 40.106312000000 0.443116000000 0.000000000000
H 40.106312000000 1.074160000000 0.892431000000
H 40.106312000000 1.074160000000 -0.892431000000
C 42.612957000000 0.443116000000 0.000000000000
H 42.612957000000 1.074160000000 0.892431000000
H 42.612957000000 1.074160000000 -0.892431000000
C 45.119602000000 0.443116000000 0.000000000000
H 45.119602000000 1.074160000000 0.892431000000
H 45.119602000000 1.074160000000 -0.892431000000
C 47.626247000000 0.443116000000 0.000000000000
H 47.626247000000 1.074160000000 0.892431000000
H 47.626247000000 1.074160000000 -0.892431000000
C 50.132893000000 0.443116000000 0.000000000000
H 50.132893000000 1.074160000000 0.892431000000
H 50.132893000000 1.074160000000 -0.892431000000
C 52.639538000000 0.443116000000 0.000000000000
H 52.639538000000 1.074160000000 0.892431000000
H 52.639538000000 1.074160000000 -0.892431000000
C 55.146183000000 0.443116000000 0.000000000000
H 55.146183000000 1.074160000000 0.892431000000
H 55.146183000000 1.074160000000 -0.892431000000
C 57.652824000000 0.443116000000 0.000000000000
H 57.652824000000 1.074160000000 0.892431000000
H 57.652824000000 1.074160000000 -0.892431000000
C 60.159470000000 0.443116000000 0.000000000000
H 60.159470000000 1.074160000000 0.892431000000
H 60.159470000000 1.074160000000 -0.892431000000
C 62.666115000000 0.443116000000 0.000000000000
H 62.666115000000 1.074160000000 0.892431000000
H 62.666115000000 1.074160000000 -0.892431000000
C 65.172760000000 0.443116000000 0.000000000000
H 65.172760000000 1.074160000000 0.892431000000
H 65.172760000000 1.074160000000 -0.892431000000
C 67.679405000000 0.443116000000 0.000000000000
H 67.679405000000 1.074160000000 0.892431000000
H 67.679405000000 1.074160000000 -0.892431000000
C 70.186050000000 0.443116000000 0.000000000000
H 70.186050000000 1.074160000000 0.892431000000
H 70.186050000000 1.074160000000 -0.892431000000
C 72.692696000000 0.443116000000 0.000000000000
H 72.692696000000 1.074160000000 0.892431000000
H 72.692696000000 1.074160000000 -0.892431000000
C 75.199341000000 0.443116000000 0.000000000000
H 75.199341000000 1.074160000000 0.892431000000
H 75.199341000000 1.074160000000 -0.892431000000
C 77.705986000000 0.443116000000 0.000000000000
H 77.705986000000 1.074160000000 0.892431000000
H 77.705986000000 1.074160000000 -0.892431000000
C 80.212624000000 0.443116000000 0.000000000000
H 80.212624000000 1.074160000000 0.892431000000
H 80.212624000000 1.074160000000 -0.892431000000
C 82.719269000000 0.443116000000 0.000000000000
H 82.719269000000 1.074160000000 0.892431000000
H 82.719269000000 1.074160000000 -0.892431000000
C 85.225914000000 0.443116000000 0.000000000000
H 85.225914000000 1.074160000000 0.892431000000
H 85.225914000000 1.074160000000 -0.892431000000
C 87.732559000000 0.443116000000 0.000000000000
H 87.732559000000 1.074160000000 0.892431000000
H 87.732559000000 1.074160000000 -0.892431000000
C 90.239204000000 0.443116000000 0.000000000000
H 90.239204000000 1.074160000000 0.892431000000
H 90.239204000000 1.074160000000 -0.892431000000
C 92.745850000000 0.443116000000 0.000000000000
H 92.745850000000 1.074160000000 0.892431000000
H 92.745850000000 1.074160000000 -0.892431000000
C 95.252495000000 0.443116000000 0.000000000000
H 95.252495000000 1.074160000000 0.892431000000
H 95.252495000000 1.074160000000 -0.892431000000
C 97.759140000000 0.443116000000 0.000000000000
H 97.759140000000 1.074160000000 0.892431000000
H 97.759140000000 1.074160000000 -0.892431000000
C 100.265785000000 0.443116000000 0.000000000000
H 100.265785000000 1.074160000000 0.892431000000
H 100.265785000000 1.074160000000 -0.892431000000
C 102.772430000000 0.443116000000 0.000000000000
H 102.772430000000 1.074160000000 0.892431000000
H 102.772430000000 1.074160000000 -0.892431000000
C 105.279076000000 0.443116000000 0.000000000000
H 105.279076000000 1.074160000000 0.892431000000
H 105.279076000000 1.074160000000 -0.892431000000
C 107.785721000000 0.443116000000 0.000000000000
H 107.785721000000 1.074160000000 0.892431000000
H 107.785721000000 1.074160000000 -0.892431000000
C 110.292366000000 0.443116000000 0.000000000000
H 110.292366000000 1.074160000000 0.892431000000
H 110.292366000000 1.074160000000 -0.892431000000
C 112.799004000000 0.443116000000 0.000000000000
H 112.799004000000 1.074160000000 0.892431000000
H 112.799004000000 1.074160000000 -0.892431000000
C 115.305649000000 0.443116000000 0.000000000000
H 115.305649000000 1.074160000000 0.892431000000
H 115.305649000000 1.074160000000 -0.892431000000
C 117.812294000000 0.443116000000 0.000000000000
H 117.812294000000 1.074160000000 0.892431000000
H 117.812294000000 1.074160000000 -0.892431000000
C 120.318939000000 0.443116000000 0.000000000000
H 120.318939000000 1.074160000000 0.892431000000
H 120.318939000000 1.074160000000 -0.892431000000
C 122.825584000000 0.443116000000 0.000000000000
H 122.825584000000 1.074160000000 0.892431000000
H 122.825584000000 1.074160000000 -0.892431000000
O 1.253322000000 0.943116000000 0.000000000000
H 1.253322000000 1.674160000000 -0.692431000000
O 1.253322000000 1.774160000000 0.792431000000
C 1.837022000000 1.774160000000 0.792431000000
O 3.759967000000 0.943116000000 0.000000000000
H 3.759967000000 1.674160000000 -0.692431000000
O 3.759967000000 1.774160000000 0.792431000000
C 4.343667000000 1.774160000000 0.792431000000
O 6.266612000000 0.943116000000 0.000000000000
H 6.266612000000 1.674160000000 -0.692431000000
O 6.266612000000 1.774160000000 0.792431000000
C 6.850311000000 1.774160000000 0.792431000000
O 8.773256000000 0.943116000000 0.000000000000
H 8.773256000000 1.674160000000 -0.692431000000
O 8.773256000000 1.774160000000 0.792431000000
C 9.356956000000 1.774160000000 0.792431000000
O 11.279901000000 0.943116000000 0.000000000000
H 11.279901000000 1.674160000000 -0.692431000000
O 11.279901000000 1.774160000000 0.792431000000
C 11.863601000000 1.774160000000 0.792431000000
O 13.786545000000 0.943116000000 0.000000000000
H 13.786545000000 1.674160000000 -0.692431000000
O 13.786545000000 1.774160000000 0.792431000000
C 14.370245000000 1.774160000000 0.792431000000
O 16.293190000000 0.943116000000 0.000000000000
H 16.293190000000 1.674160000000 -0.692431000000
O 16.293190000000 1.774160000000 0.792431000000
C 16.876890000000 1.774160000000 0.792431000000
O 18.799835000000 0.943116000000 0.000000000000
H 18.799835000000 1.674160000000 -0.692431000000
O 18.799835000000 1.774160000000 0.792431000000
C 19.383533000000 1.774160000000 0.792431000000
O 21.306479000000 0.943116000000 0.000000000000
H 21.306479000000 1.674160000000 -0.692431000000
O 21.306479000000 1.774160000000 0.792431000000
C 21.890179000000 1.774160000000 0.792431000000
O 23.813124000000 0.943116000000 0.000000000000
H 23.813124000000 1.674160000000 -0.692431000000
O 23.813124000000 1.774160000000 0.792431000000
C 24.396824000000 1.774160000000 0.792431000000
O 26.319769000000 0.943116000000 0.000000000000
H 26.319769000000 1.674160000000 -0.692431000000
O 26.319769000000 1.774160000000 0.792431000000
C 26.903469000000 1.774160000000 0.792431000000
O 28.826412000000 0.943116000000 0.000000000000
H 28.826412000000 1.674160000000 -0.692431000000
O 28.826412000000 1.774160000000 0.792431000000
C 29.410112000000 1.774160000000 0.792431000000
O 31.333057000000 0.943116000000 0.000000000000
H 31.333057000000 1.674160000000 -0.692431000000
O 31.333057000000 1.774160000000 0.792431000000
C 31.916758000000 1.774160000000 0.792431000000
O 33.839703000000 0.943116000000 0.000000000000
H 33.839703000000 1.674160000000 -0.692431000000
O 33.839703000000 1.774160000000 0.792431000000
C 34.423401000000 1.774160000000 0.792431000000
O 36.346348000000 0.943116000000 0.000000000000
H 36.346348000000 1.674160000000 -0.692431000000
O 36.346348000000 1.774160000000 0.792431000000
C 36.930046000000 1.774160000000 0.792431000000
O 38.852993000000 0.943116000000 0.000000000000
H 38.852993000000 1.674160000000 -0.692431000000
O 38.852993000000 1.774160000000 0.792431000000
C 39.436691000000 1.774160000000 0.792431000000
O 41.359634000000 0.943116000000 0.000000000000
H 41.359634000000 1.674160000000 -0.692431000000
O 41.359634000000 1.774160000000 0.792431000000
C 41.943336000000 1.774160000000 0.792431000000
O 43.866280000000 0.943116000000 0.000000000000
H 43.866280000000 1.674160000000 -0.692431000000
O 43.866280000000 1.774160000000 0.792431000000
C 44.449982000000 1.774160000000 0.792431000000
O 46.372925000000 0.943116000000 0.000000000000
H 46.372925000000 1.674160000000 -0.692431000000
O 46.372925000000 1.774160000000 0.792431000000
C 46.956627000000 1.774160000000 0.792431000000
O 48.879570000000 0.943116000000 0.000000000000
H 48.879570000000 1.674160000000 -0.692431000000
O 48.879570000000 1.774160000000 0.792431000000
C 49.463268000000 1.774160000000 0.792431000000
O 51.386215000000 0.943116000000 0.000000000000
H 51.386215000000 1.674160000000 -0.692431000000
O 51.386215000000 1.774160000000 0.792431000000
C 51.969913000000 1.774160000000 0.792431000000
O 53.892860000000 0.943116000000 0.000000000000
H 53.892860000000 1.674160000000 -0.692431000000
O 53.892860000000 1.774160000000 0.792431000000
C 54.476559000000 1.774160000000 0.792431000000
O 56.399502000000 0.943116000000 0.000000000000
H 56.399502000000 1.674160000000 -0.692431000000
O 56.399502000000 1.774160000000 0.792431000000
C 56.983204000000 1.774160000000 0.792431000000
O 58.906147000000 0.943116000000 0.000000000000
H 58.906147000000 1.674160000000 -0.692431000000
O 58.906147000000 1.774160000000 0.792431000000
C 59.489849000000 1.774160000000 0.792431000000
O 61.412792000000 0.943116000000 0.000000000000
H 61.412792000000 1.674160000000 -0.692431000000
O 61.412792000000 1.774160000000 0.792431000000
C 61.996494000000 1.774160000000 0.792431000000
O 63.919437000000 0.943116000000 0.000000000000
H 63.919437000000 1.674160000000 -0.692431000000
O 63.919437000000 1.774160000000 0.792431000000
C 64.503136000000 1.774160000000 0.792431000000
O 66.426079000000 0.943116000000 0.000000000000
H 66.426079000000 1.674160000000 -0.692431000000
O 66.426079000000 1.774160000000 0.792431000000
C 67.009781000000 1.774160000000 0.792431000000
O 68.932724000000 0.943116000000 0.000000000000
H 68.932724000000 1.674160000000 -0.692431000000
O 68.932724000000 1.774160000000 0.792431000000
C 69.516426000000 1.774160000000 0.792431000000
O 71.439369000000 0.943116000000 0.000000000000
H 71.439369000000 1.674160000000 -0.692431000000
O 71.439369000000 1.774160000000 0.792431000000
C 72.023071000000 1.774160000000 0.792431000000
O 73.946014000000 0.943116000000 0.000000000000
H 73.946014000000 1.674160000000 -0.692431000000
O 73.946014000000 1.774160000000 0.792431000000
C 74.529716000000 1.774160000000 0.792431000000
O 76.452660000000 0.943116000000 0.000000000000
H 76.452660000000 1.674160000000 -0.692431000000
O 76.452660000000 1.774160000000 0.792431000000
C 77.036362000000 1.774160000000 0.792431000000
O 78.959305000000 0.943116000000 0.000000000000
H 78.959305000000 1.674160000000 -0.692431000000
O 78.959305000000 1.774160000000 0.792431000000
C 79.543007000000 1.774160000000 0.792431000000
O 81.465950000000 0.943116000000 0.000000000000
H 81.465950000000 1.674160000000 -0.692431000000
O 81.465950000000 1.774160000000 0.792431000000
C 82.049652000000 1.774160000000 0.792431000000
O 83.972595000000 0.943116000000 0.000000000000
H 83.972595000000 1.674160000000 -0.692431000000
O 83.972595000000 1.774160000000 0.792431000000
C 84.556297000000 1.774160000000 0.792431000000
O 86.479240000000 0.943116000000 0.000000000000
H 86.479240000000 1.674160000000 -0.692431000000
O 86.479240000000 1.774160000000 0.792431000000
C 87.062935000000 1.774160000000 0.792431000000
O 88.985886000000 0.943116000000 0.000000000000
H 88.985886000000 1.674160000000 -0.692431000000
O 88.985886000000 1.774160000000 0.792431000000
C 89.569580000000 1.774160000000 0.792431000000
O 91.492531000000 0.943116000000 0.000000000000
H 91.492531000000 1.674160000000 -0.692431000000
O 91.492531000000 1.774160000000 0.792431000000
C 92.076225000000 1.774160000000 0.792431000000
O 93.999176000000 0.943116000000 0.000000000000
H 93.999176000000 1.674160000000 -0.692431000000
O 93.999176000000 1.774160000000 0.792431000000
C 94.582870000000 1.774160000000 0.792431000000
O 96.505814000000 0.943116000000 0.000000000000
H 96.505814000000 1.674160000000 -0.692431000000
O 96.505814000000 1.774160000000 0.792431000000
C 97.089516000000 1.774160000000 0.792431000000
O 99.012459000000 0.943116000000 0.000000000000
H 99.012459000000 1.674160000000 -0.692431000000
O 99.012459000000 1.774160000000 0.792431000000
C 99.596161000000 1.774160000000 0.792431000000
O 101.519104000000 0.943116000000 0.000000000000
H 101.519104000000 1.674160000000 -0.692431000000
O 101.519104000000 1.774160000000 0.792431000000
C 102.102806000000 1.774160000000 0.792431000000
O 104.025749000000 0.943116000000 0.000000000000
H 104.025749000000 1.674160000000 -0.692431000000
O 104.025749000000 1.774160000000 0.792431000000
C 104.609451000000 1.774160000000 0.792431000000
O 106.532394000000 0.943116000000 0.000000000000
H 106.532394000000 1.674160000000 -0.692431000000
O 106.532394000000 1.774160000000 0.792431000000
C 107.116096000000 1.774160000000 0.792431000000
O 109.039040000000 0.943116000000 0.000000000000
H 109.039040000000 1.674160000000 -0.692431000000
O 109.039040000000 1.774160000000 0.792431000000
C 109.622742000000 1.774160000000 0.792431000000
O 111.545685000000 0.943116000000 0.000000000000
H 111.545685000000 1.674160000000 -0.692431000000
O 111.545685000000 1.774160000000 0.792431000000
C 112.129387000000 1.774160000000 0.792431000000
O 114.052330000000 0.943116000000 0.000000000000
H 114.052330000000 1.674160000000 -0.692431000000
O 114.052330000000 1.774160000000 0.792431000000
C 114.636032000000 1.774160000000 0.792431000000
O 116.558975000000 0.943116000000 0.000000000000
H 116.558975000000 1.674160000000 -0.692431000000
O 116.558975000000 1.774160000000 0.792431000000
C 117.142677000000 1.774160000000 0.792431000000
O 119.065620000000 0.943116000000 0.000000000000
H 119.065620000000 1.674160000000 -0.692431000000
O 119.065620000000 1.774160000000 0.792431000000
C 119.649315000000 1.774160000000 0.792431000000
O 121.572266000000 0.943116000000 0.000000000000
H 121.572266000000 1.674160000000 -0.692431000000
O 121.572266000000 1.774160000000 0.792431000000
C 122.155960000000 1.774160000000 0.792431000000
O 124.078911000000 0.943116000000 0.000000000000
H 124.078911000000 1.674160000000 -0.692431000000
O 124.078911000000 1.774160000000 0.792431000000
C 124.662605000000 1.774160000000 0.792431000000
C -1.253322000000 0.443116000000 0.000000000000
H -1.253322000000 1.074160000000 0.892431000000
H -1.253322000000 1.074160000000 -0.892431000000
H -2.145753000000 -0.187928000000 0.000000000000
C 125.332230000000 0.443116000000 0.000000000000
H 125.332230000000 1.074160000000 0.892431000000
H 125.332230000000 1.074160000000 -0.892431000000
H 125.332230000000 -0.187928000000 0.000000000000
